<?xml version="1.0" encoding="UTF-8"?>

<!-- generated on 2025-05-22 01:34:09.074887 by randomTrips.py v1_23_1+0000-676720d13f6
<configuration>
    <net-file value="map/map.net.xml"/>
    <route-file value="map/map.rou.xml"/>
    <end value="200.0"/>
</configuration>
-->

<!-- generated on 2025-05-22 01:34:08 by Eclipse SUMO duarouter Version 1.23.1
<duarouterConfiguration xmlns:xsi="http://www.w3.org/2001/XMLSchema-instance" xsi:noNamespaceSchemaLocation="http://sumo.dlr.de/xsd/duarouterConfiguration.xsd">

    <input>
        <net-file value="map/map.net.xml"/>
        <route-files value="trips.trips.xml"/>
    </input>

    <output>
        <output-file value="map/map.rou.xml"/>
        <alternatives-output value="NUL"/>
    </output>

    <time>
        <begin value="0"/>
        <end value="200.0"/>
    </time>

    <report>
        <no-warnings value="true"/>
        <ignore-errors value="true"/>
        <no-step-log value="true"/>
    </report>

</duarouterConfiguration>
-->

<routes xmlns:xsi="http://www.w3.org/2001/XMLSchema-instance" xsi:noNamespaceSchemaLocation="http://sumo.dlr.de/xsd/routes_file.xsd">

</routes>
