<?xml version="1.0" encoding="UTF-8"?>

<!-- generated on 2025-05-22 01:22:58 by Eclipse SUMO netconvert Version 1.23.1
<netconvertConfiguration xmlns:xsi="http://www.w3.org/2001/XMLSchema-instance" xsi:noNamespaceSchemaLocation="http://sumo.dlr.de/xsd/netconvertConfiguration.xsd">

    <input>
        <osm-files value="map.osm"/>
    </input>

    <output>
        <output-file value="map.net.xml"/>
    </output>

    <projection>
        <proj.utm value="true"/>
    </projection>

</netconvertConfiguration>
-->

<net version="1.20" junctionCornerDetail="5" limitTurnSpeed="5.50" xmlns:xsi="http://www.w3.org/2001/XMLSchema-instance" xsi:noNamespaceSchemaLocation="http://sumo.dlr.de/xsd/net_file.xsd">

    <location netOffset="-754599.64,1907053.86" convBoundary="0.00,0.00,3865.20,2271.23" origBoundary="-42.610455,-17.308526,-42.508584,-17.197904" projParameter="+proj=utm +zone=23 +ellps=WGS84 +datum=WGS84 +units=m +no_defs"/>

    <type id="highway.footway" priority="1" numLanes="1" speed="2.78" allow="pedestrian" oneway="1" width="2.00"/>
    <type id="highway.path" priority="1" numLanes="1" speed="5.56" allow="pedestrian bicycle" oneway="0" width="2.00"/>
    <type id="highway.residential" priority="3" numLanes="1" speed="13.89" disallow="tram rail_urban rail rail_electric rail_fast ship container cable_car subway aircraft wheelchair scooter drone" oneway="0"/>
    <type id="highway.service" priority="1" numLanes="1" speed="5.56" allow="pedestrian delivery bicycle" oneway="0"/>
    <type id="highway.tertiary" priority="10" numLanes="1" speed="22.22" disallow="tram rail_urban rail rail_electric rail_fast ship container cable_car subway aircraft wheelchair scooter drone" oneway="0"/>
    <type id="highway.tertiary_link" priority="5" numLanes="1" speed="22.22" disallow="tram rail_urban rail rail_electric rail_fast ship container cable_car subway aircraft wheelchair scooter drone" oneway="0"/>
    <type id="highway.unclassified" priority="4" numLanes="1" speed="13.89" disallow="tram rail_urban rail rail_electric rail_fast ship container cable_car subway aircraft wheelchair scooter drone" oneway="0"/>

    <edge id=":12437291058_0" function="internal">
        <lane id=":12437291058_0_0" index="0" disallow="tram rail_urban rail rail_electric rail_fast ship container cable_car subway aircraft wheelchair scooter drone" speed="13.89" length="2.95" shape="1307.19,1897.10 1306.21,1899.88"/>
    </edge>
    <edge id=":12437291058_1" function="internal">
        <lane id=":12437291058_1_0" index="0" disallow="tram rail_urban rail rail_electric rail_fast ship container cable_car subway aircraft wheelchair scooter drone" speed="13.89" length="2.97" shape="1303.18,1898.84 1304.17,1896.04"/>
    </edge>
    <edge id=":12444827019_0" function="internal">
        <lane id=":12444827019_0_0" index="0" disallow="tram rail_urban rail rail_electric rail_fast ship container cable_car subway aircraft wheelchair scooter drone" speed="22.22" length="8.60" shape="1330.71,1872.49 1322.11,1872.26"/>
    </edge>
    <edge id=":12444827019_1" function="internal">
        <lane id=":12444827019_1_0" index="0" allow="pedestrian delivery bicycle" speed="6.83" length="2.72" shape="1330.71,1872.49 1328.44,1872.03 1328.11,1871.79"/>
    </edge>
    <edge id=":12444827019_7" function="internal">
        <lane id=":12444827019_7_0" index="0" allow="pedestrian delivery bicycle" speed="6.83" length="6.81" shape="1328.11,1871.79 1326.77,1870.79 1325.72,1868.76 1325.28,1865.94"/>
    </edge>
    <edge id=":12444827019_2" function="internal">
        <lane id=":12444827019_2_0" index="0" allow="pedestrian delivery bicycle" speed="5.00" length="4.64" shape="1328.47,1865.80 1328.67,1867.31 1329.13,1868.39 1329.83,1869.05 1330.79,1869.29"/>
    </edge>
    <edge id=":12444827019_3" function="internal">
        <lane id=":12444827019_3_0" index="0" allow="pedestrian delivery bicycle" speed="6.81" length="10.51" shape="1328.47,1865.80 1328.18,1868.70 1327.03,1870.74 1325.00,1871.93 1322.11,1872.26"/>
    </edge>
    <edge id=":12444827019_4" function="internal">
        <lane id=":12444827019_4_0" index="0" allow="pedestrian delivery bicycle" speed="3.65" length="4.67" shape="1328.47,1865.80 1327.73,1867.04 1326.94,1867.47 1326.13,1867.10 1325.28,1865.94"/>
    </edge>
    <edge id=":12444827019_5" function="internal">
        <lane id=":12444827019_5_0" index="0" allow="pedestrian delivery bicycle" speed="4.97" length="5.09" shape="1322.20,1869.07 1323.60,1868.90 1324.58,1868.33 1325.14,1867.34 1325.28,1865.94"/>
    </edge>
    <edge id=":12444827019_6" function="internal">
        <lane id=":12444827019_6_0" index="0" disallow="tram rail_urban rail rail_electric rail_fast ship container cable_car subway aircraft wheelchair scooter drone" speed="22.22" length="8.59" shape="1322.20,1869.07 1330.79,1869.29"/>
    </edge>
    <edge id=":12444827020_0" function="internal">
        <lane id=":12444827020_0_0" index="0" disallow="tram rail_urban rail rail_electric rail_fast ship container cable_car subway aircraft wheelchair scooter drone" speed="22.22" length="1.30" shape="1309.78,1872.11 1309.40,1872.10 1309.14,1872.06 1308.87,1872.02 1308.49,1871.99"/>
    </edge>
    <edge id=":12444827020_1" function="internal">
        <lane id=":12444827020_1_0" index="0" disallow="tram rail_urban rail rail_electric rail_fast ship container cable_car subway aircraft wheelchair scooter drone" speed="22.22" length="1.16" shape="1308.60,1868.79 1309.75,1868.91"/>
    </edge>
    <edge id=":12446153056_0" function="internal">
        <lane id=":12446153056_0_0" index="0" allow="pedestrian delivery bicycle" speed="4.85" length="4.00" shape="989.09,1869.54 987.59,1873.25"/>
    </edge>
    <edge id=":12446153056_1" function="internal">
        <lane id=":12446153056_1_0" index="0" disallow="tram rail_urban rail rail_electric rail_fast ship container cable_car subway aircraft wheelchair scooter drone" speed="22.22" length="6.03" shape="989.09,1869.54 983.45,1867.43"/>
    </edge>
    <edge id=":12446153056_2" function="internal">
        <lane id=":12446153056_2_0" index="0" disallow="tram rail_urban rail rail_electric rail_fast ship container cable_car subway aircraft wheelchair scooter drone" speed="22.22" length="6.07" shape="984.56,1864.43 990.24,1866.55"/>
    </edge>
    <edge id=":12446153056_3" function="internal">
        <lane id=":12446153056_3_0" index="0" allow="pedestrian delivery bicycle" speed="6.73" length="3.51" shape="984.56,1864.43 987.34,1865.94 987.54,1866.21"/>
    </edge>
    <edge id=":12446153056_7" function="internal">
        <lane id=":12446153056_7_0" index="0" allow="pedestrian delivery bicycle" speed="6.73" length="7.71" shape="987.54,1866.21 988.78,1867.91 988.86,1870.35 987.59,1873.25"/>
    </edge>
    <edge id=":12446153056_4" function="internal">
        <lane id=":12446153056_4_0" index="0" allow="pedestrian delivery bicycle" speed="4.85" length="5.26" shape="984.87,1871.57 985.47,1870.21 985.43,1869.06 984.75,1868.14 983.45,1867.43"/>
    </edge>
    <edge id=":12446153056_5" function="internal">
        <lane id=":12446153056_5_0" index="0" allow="pedestrian delivery bicycle" speed="6.41" length="7.70" shape="984.87,1871.57 986.55,1869.09 988.00,1867.43 989.23,1866.58 990.24,1866.55"/>
    </edge>
    <edge id=":12446153056_6" function="internal">
        <lane id=":12446153056_6_0" index="0" allow="pedestrian delivery bicycle" speed="3.65" length="4.67" shape="984.87,1871.57 986.18,1870.97 987.07,1871.05 987.54,1871.81 987.59,1873.25"/>
    </edge>
    <edge id=":12446153070_0" function="internal">
        <lane id=":12446153070_0_0" index="0" disallow="tram rail_urban rail rail_electric rail_fast ship container cable_car subway aircraft wheelchair scooter drone" speed="3.65" length="4.67" shape="1983.37,1710.27 1982.21,1709.41 1981.85,1708.59 1982.29,1707.81 1983.53,1707.07"/>
    </edge>
    <edge id=":12449635847_0" function="internal">
        <lane id=":12449635847_0_0" index="0" disallow="tram rail_urban rail rail_electric rail_fast ship container cable_car subway aircraft wheelchair scooter drone" speed="3.65" length="4.67" shape="1693.50,1310.55 1692.95,1311.88 1692.24,1312.43 1691.38,1312.19 1690.36,1311.16"/>
    </edge>
    <edge id=":12449635850_0" function="internal">
        <lane id=":12449635850_0_0" index="0" disallow="tram rail_urban rail rail_electric rail_fast ship container cable_car subway aircraft wheelchair scooter drone" speed="3.65" length="4.67" shape="1990.81,1258.95 1989.55,1259.64 1988.65,1259.62 1988.13,1258.90 1987.98,1257.46"/>
    </edge>
    <edge id=":12449635851_0" function="internal">
        <lane id=":12449635851_0_0" index="0" disallow="tram rail_urban rail rail_electric rail_fast ship container cable_car subway aircraft wheelchair scooter drone" speed="3.65" length="4.67" shape="1863.98,985.81 1862.95,986.82 1862.08,987.04 1861.38,986.49 1860.85,985.15"/>
    </edge>
    <edge id=":12449635852_0" function="internal">
        <lane id=":12449635852_0_0" index="0" disallow="tram rail_urban rail rail_electric rail_fast ship container cable_car subway aircraft wheelchair scooter drone" speed="3.65" length="4.67" shape="1959.83,1050.35 1960.56,1051.59 1960.58,1052.49 1959.87,1053.03 1958.44,1053.23"/>
    </edge>
    <edge id=":12449635863_0" function="internal">
        <lane id=":12449635863_0_0" index="0" disallow="tram rail_urban rail rail_electric rail_fast ship container cable_car subway aircraft wheelchair scooter drone" speed="3.65" length="4.67" shape="1638.02,789.93 1637.61,788.55 1637.81,787.68 1638.63,787.32 1640.07,787.47"/>
    </edge>
    <edge id=":12449635866_0" function="internal">
        <lane id=":12449635866_0_0" index="0" disallow="tram rail_urban rail rail_electric rail_fast ship container cable_car subway aircraft wheelchair scooter drone" speed="13.89" length="14.52" shape="2702.66,1040.16 2702.59,1025.64"/>
    </edge>
    <edge id=":12449635866_1" function="internal">
        <lane id=":12449635866_1_0" index="0" disallow="tram rail_urban rail rail_electric rail_fast ship container cable_car subway aircraft wheelchair scooter drone" speed="7.70" length="4.22" shape="2702.66,1040.16 2703.25,1035.98"/>
    </edge>
    <edge id=":12449635866_2" function="internal">
        <lane id=":12449635866_2_0" index="0" disallow="tram rail_urban rail rail_electric rail_fast ship container cable_car subway aircraft wheelchair scooter drone" speed="3.65" length="1.44" shape="2702.66,1040.16 2703.46,1038.96"/>
    </edge>
    <edge id=":12449635866_9" function="internal">
        <lane id=":12449635866_9_0" index="0" disallow="tram rail_urban rail rail_electric rail_fast ship container cable_car subway aircraft wheelchair scooter drone" speed="7.70" length="10.75" shape="2703.25,1035.98 2705.04,1033.25 2708.05,1031.98 2712.27,1032.17"/>
    </edge>
    <edge id=":12449635866_10" function="internal">
        <lane id=":12449635866_10_0" index="0" disallow="tram rail_urban rail rail_electric rail_fast ship container cable_car subway aircraft wheelchair scooter drone" speed="3.65" length="3.23" shape="2703.46,1038.96 2704.26,1038.56 2705.06,1038.95 2705.86,1040.15"/>
    </edge>
    <edge id=":12449635866_3" function="internal">
        <lane id=":12449635866_3_0" index="0" disallow="tram rail_urban rail rail_electric rail_fast ship container cable_car subway aircraft wheelchair scooter drone" speed="6.13" length="9.06" shape="2711.67,1035.31 2709.12,1035.20 2707.30,1035.97 2706.22,1037.62 2705.86,1040.15"/>
    </edge>
    <edge id=":12449635866_4" function="internal">
        <lane id=":12449635866_4_0" index="0" disallow="tram rail_urban rail rail_electric rail_fast ship container cable_car subway aircraft wheelchair scooter drone" speed="8.72" length="14.55" shape="2711.67,1035.31 2707.71,1034.07 2704.88,1032.04 2703.17,1029.23 2702.59,1025.64"/>
    </edge>
    <edge id=":12449635866_5" function="internal">
        <lane id=":12449635866_5_0" index="0" disallow="tram rail_urban rail rail_electric rail_fast ship container cable_car subway aircraft wheelchair scooter drone" speed="3.65" length="4.67" shape="2711.67,1035.31 2710.64,1034.30 2710.40,1033.44 2710.94,1032.73 2712.27,1032.17"/>
    </edge>
    <edge id=":12449635866_6" function="internal">
        <lane id=":12449635866_6_0" index="0" disallow="tram rail_urban rail rail_electric rail_fast ship container cable_car subway aircraft wheelchair scooter drone" speed="7.35" length="10.09" shape="2705.79,1025.63 2706.21,1028.03 2707.42,1029.92 2709.44,1031.30 2712.27,1032.17"/>
    </edge>
    <edge id=":12449635866_7" function="internal">
        <lane id=":12449635866_7_0" index="0" disallow="tram rail_urban rail rail_electric rail_fast ship container cable_car subway aircraft wheelchair scooter drone" speed="13.89" length="14.52" shape="2705.79,1025.63 2705.86,1040.15"/>
    </edge>
    <edge id=":12449635866_8" function="internal">
        <lane id=":12449635866_8_0" index="0" disallow="tram rail_urban rail rail_electric rail_fast ship container cable_car subway aircraft wheelchair scooter drone" speed="3.65" length="1.44" shape="2705.79,1025.63 2705.00,1026.83"/>
    </edge>
    <edge id=":12449635866_11" function="internal">
        <lane id=":12449635866_11_0" index="0" disallow="tram rail_urban rail rail_electric rail_fast ship container cable_car subway aircraft wheelchair scooter drone" speed="3.65" length="3.23" shape="2705.00,1026.83 2704.20,1027.24 2703.40,1026.84 2702.59,1025.64"/>
    </edge>
    <edge id=":12449635872_0" function="internal">
        <lane id=":12449635872_0_0" index="0" disallow="tram rail_urban rail rail_electric rail_fast ship container cable_car subway aircraft wheelchair scooter drone" speed="3.65" length="4.67" shape="2636.91,1510.62 2636.07,1511.79 2635.25,1512.15 2634.47,1511.72 2633.72,1510.49"/>
    </edge>
    <edge id=":12449635873_0" function="internal">
        <lane id=":12449635873_0_0" index="0" disallow="tram rail_urban rail rail_electric rail_fast ship container cable_car subway aircraft wheelchair scooter drone" speed="6.32" length="9.04" shape="2643.90,1477.93 2641.39,1477.97 2639.56,1478.82 2638.43,1480.48 2637.97,1482.95"/>
    </edge>
    <edge id=":12449635873_1" function="internal">
        <lane id=":12449635873_1_0" index="0" disallow="tram rail_urban rail rail_electric rail_fast ship container cable_car subway aircraft wheelchair scooter drone" speed="13.89" length="15.23" shape="2643.90,1477.93 2628.79,1476.00"/>
    </edge>
    <edge id=":12449635873_2" function="internal">
        <lane id=":12449635873_2_0" index="0" disallow="tram rail_urban rail rail_electric rail_fast ship container cable_car subway aircraft wheelchair scooter drone" speed="8.72" length="4.19" shape="2643.90,1477.93 2640.03,1476.87 2639.88,1476.76"/>
    </edge>
    <edge id=":12449635873_3" function="internal">
        <lane id=":12449635873_3_0" index="0" disallow="tram rail_urban rail rail_electric rail_fast ship container cable_car subway aircraft wheelchair scooter drone" speed="3.65" length="1.44" shape="2643.90,1477.93 2642.81,1476.98"/>
    </edge>
    <edge id=":12449635873_16" function="internal">
        <lane id=":12449635873_16_0" index="0" disallow="tram rail_urban rail rail_electric rail_fast ship container cable_car subway aircraft wheelchair scooter drone" speed="8.72" length="10.89" shape="2639.88,1476.76 2637.24,1474.81 2635.52,1471.76 2634.86,1467.71"/>
    </edge>
    <edge id=":12449635873_17" function="internal">
        <lane id=":12449635873_17_0" index="0" disallow="tram rail_urban rail rail_electric rail_fast ship container cable_car subway aircraft wheelchair scooter drone" speed="3.65" length="3.23" shape="2642.81,1476.98 2642.51,1476.14 2643.01,1475.40 2644.30,1474.75"/>
    </edge>
    <edge id=":12449635873_4" function="internal">
        <lane id=":12449635873_4_0" index="0" disallow="tram rail_urban rail rail_electric rail_fast ship container cable_car subway aircraft wheelchair scooter drone" speed="7.36" length="10.48" shape="2638.06,1467.62 2638.51,1470.45 2639.70,1472.58 2641.63,1474.02 2644.30,1474.75"/>
    </edge>
    <edge id=":12449635873_5" function="internal">
        <lane id=":12449635873_5_0" index="0" disallow="tram rail_urban rail rail_electric rail_fast ship container cable_car subway aircraft wheelchair scooter drone" speed="13.89" length="15.32" shape="2638.06,1467.62 2637.97,1482.95"/>
    </edge>
    <edge id=":12449635873_6" function="internal">
        <lane id=":12449635873_6_0" index="0" disallow="tram rail_urban rail rail_electric rail_fast ship container cable_car subway aircraft wheelchair scooter drone" speed="7.75" length="14.81" shape="2638.06,1467.62 2637.58,1471.75 2635.87,1474.52 2632.94,1475.93 2628.79,1476.00"/>
    </edge>
    <edge id=":12449635873_7" function="internal">
        <lane id=":12449635873_7_0" index="0" disallow="tram rail_urban rail rail_electric rail_fast ship container cable_car subway aircraft wheelchair scooter drone" speed="3.65" length="4.67" shape="2638.06,1467.62 2637.29,1468.84 2636.50,1469.26 2635.69,1468.89 2634.86,1467.71"/>
    </edge>
    <edge id=":12449635873_8" function="internal">
        <lane id=":12449635873_8_0" index="0" disallow="tram rail_urban rail rail_electric rail_fast ship container cable_car subway aircraft wheelchair scooter drone" speed="6.20" length="9.05" shape="2629.20,1472.82 2631.73,1472.78 2633.52,1471.92 2634.57,1470.23 2634.86,1467.71"/>
    </edge>
    <edge id=":12449635873_9" function="internal">
        <lane id=":12449635873_9_0" index="0" disallow="tram rail_urban rail rail_electric rail_fast ship container cable_car subway aircraft wheelchair scooter drone" speed="13.89" length="15.23" shape="2629.20,1472.82 2644.30,1474.75"/>
    </edge>
    <edge id=":12449635873_10" function="internal">
        <lane id=":12449635873_10_0" index="0" disallow="tram rail_urban rail rail_electric rail_fast ship container cable_car subway aircraft wheelchair scooter drone" speed="8.49" length="4.30" shape="2629.20,1472.82 2633.17,1473.90 2633.32,1474.01"/>
    </edge>
    <edge id=":12449635873_11" function="internal">
        <lane id=":12449635873_11_0" index="0" disallow="tram rail_urban rail rail_electric rail_fast ship container cable_car subway aircraft wheelchair scooter drone" speed="3.65" length="1.44" shape="2629.20,1472.82 2630.28,1473.77"/>
    </edge>
    <edge id=":12449635873_18" function="internal">
        <lane id=":12449635873_18_0" index="0" disallow="tram rail_urban rail rail_electric rail_fast ship container cable_car subway aircraft wheelchair scooter drone" speed="8.49" length="10.70" shape="2633.32,1474.01 2635.95,1475.94 2637.55,1478.96 2637.97,1482.95"/>
    </edge>
    <edge id=":12449635873_19" function="internal">
        <lane id=":12449635873_19_0" index="0" disallow="tram rail_urban rail rail_electric rail_fast ship container cable_car subway aircraft wheelchair scooter drone" speed="3.65" length="3.23" shape="2630.28,1473.77 2630.58,1474.62 2630.08,1475.36 2628.79,1476.00"/>
    </edge>
    <edge id=":12449635873_12" function="internal">
        <lane id=":12449635873_12_0" index="0" disallow="tram rail_urban rail rail_electric rail_fast ship container cable_car subway aircraft wheelchair scooter drone" speed="7.09" length="10.16" shape="2634.78,1482.82 2634.49,1480.14 2633.39,1478.10 2631.50,1476.72 2628.79,1476.00"/>
    </edge>
    <edge id=":12449635873_13" function="internal">
        <lane id=":12449635873_13_0" index="0" disallow="tram rail_urban rail rail_electric rail_fast ship container cable_car subway aircraft wheelchair scooter drone" speed="13.89" length="15.12" shape="2634.78,1482.82 2634.86,1467.71"/>
    </edge>
    <edge id=":12449635873_14" function="internal">
        <lane id=":12449635873_14_0" index="0" disallow="tram rail_urban rail rail_electric rail_fast ship container cable_car subway aircraft wheelchair scooter drone" speed="7.85" length="14.54" shape="2634.78,1482.82 2635.50,1478.86 2637.33,1476.19 2640.27,1474.82 2644.30,1474.75"/>
    </edge>
    <edge id=":12449635873_15" function="internal">
        <lane id=":12449635873_15_0" index="0" disallow="tram rail_urban rail rail_electric rail_fast ship container cable_car subway aircraft wheelchair scooter drone" speed="3.65" length="4.67" shape="2634.78,1482.82 2635.62,1481.65 2636.44,1481.29 2637.22,1481.72 2637.97,1482.95"/>
    </edge>
    <edge id=":12449635875_0" function="internal">
        <lane id=":12449635875_0_0" index="0" disallow="tram rail_urban rail rail_electric rail_fast ship container cable_car subway aircraft wheelchair scooter drone" speed="13.89" length="16.73" shape="2613.20,1431.02 2612.21,1414.31"/>
    </edge>
    <edge id=":12449635875_1" function="internal">
        <lane id=":12449635875_1_0" index="0" disallow="tram rail_urban rail rail_electric rail_fast ship container cable_car subway aircraft wheelchair scooter drone" speed="7.40" length="5.80" shape="2613.20,1431.02 2613.53,1425.22"/>
    </edge>
    <edge id=":12449635875_2" function="internal">
        <lane id=":12449635875_2_0" index="0" disallow="tram rail_urban rail rail_electric rail_fast ship container cable_car subway aircraft wheelchair scooter drone" speed="3.65" length="1.44" shape="2613.20,1431.02 2613.93,1429.77"/>
    </edge>
    <edge id=":12449635875_9" function="internal">
        <lane id=":12449635875_9_0" index="0" disallow="tram rail_urban rail rail_electric rail_fast ship container cable_car subway aircraft wheelchair scooter drone" speed="7.40" length="13.05" shape="2613.53,1425.22 2613.54,1425.06 2615.43,1422.17 2618.88,1422.34 2623.90,1425.58"/>
    </edge>
    <edge id=":12449635875_10" function="internal">
        <lane id=":12449635875_10_0" index="0" disallow="tram rail_urban rail rail_electric rail_fast ship container cable_car subway aircraft wheelchair scooter drone" speed="3.65" length="3.23" shape="2613.93,1429.77 2614.71,1429.33 2615.53,1429.68 2616.40,1430.83"/>
    </edge>
    <edge id=":12449635875_3" function="internal">
        <lane id=":12449635875_3_0" index="0" disallow="tram rail_urban rail rail_electric rail_fast ship container cable_car subway aircraft wheelchair scooter drone" speed="5.49" length="9.63" shape="2621.86,1428.05 2619.30,1426.39 2617.54,1426.30 2616.57,1427.78 2616.40,1430.83"/>
    </edge>
    <edge id=":12449635875_4" function="internal">
        <lane id=":12449635875_4_0" index="0" disallow="tram rail_urban rail rail_electric rail_fast ship container cable_car subway aircraft wheelchair scooter drone" speed="13.16" length="17.19" shape="2621.86,1428.05 2617.78,1424.32 2614.80,1420.79 2612.95,1417.45 2612.21,1414.31"/>
    </edge>
    <edge id=":12449635875_5" function="internal">
        <lane id=":12449635875_5_0" index="0" disallow="tram rail_urban rail rail_electric rail_fast ship container cable_car subway aircraft wheelchair scooter drone" speed="3.65" length="4.67" shape="2621.86,1428.05 2621.44,1426.67 2621.64,1425.80 2622.46,1425.43 2623.90,1425.58"/>
    </edge>
    <edge id=":12449635875_6" function="internal">
        <lane id=":12449635875_6_0" index="0" disallow="tram rail_urban rail rail_electric rail_fast ship container cable_car subway aircraft wheelchair scooter drone" speed="12.14" length="14.57" shape="2615.40,1414.12 2616.04,1416.60 2617.67,1419.33 2620.29,1422.33 2623.90,1425.58"/>
    </edge>
    <edge id=":12449635875_7" function="internal">
        <lane id=":12449635875_7_0" index="0" disallow="tram rail_urban rail rail_electric rail_fast ship container cable_car subway aircraft wheelchair scooter drone" speed="13.89" length="16.73" shape="2615.40,1414.12 2616.40,1430.83"/>
    </edge>
    <edge id=":12449635875_8" function="internal">
        <lane id=":12449635875_8_0" index="0" disallow="tram rail_urban rail rail_electric rail_fast ship container cable_car subway aircraft wheelchair scooter drone" speed="3.65" length="1.44" shape="2615.40,1414.12 2614.68,1415.37"/>
    </edge>
    <edge id=":12449635875_11" function="internal">
        <lane id=":12449635875_11_0" index="0" disallow="tram rail_urban rail rail_electric rail_fast ship container cable_car subway aircraft wheelchair scooter drone" speed="3.65" length="3.23" shape="2614.68,1415.37 2613.90,1415.82 2613.08,1415.46 2612.21,1414.31"/>
    </edge>
    <edge id=":12451292239_0" function="internal">
        <lane id=":12451292239_0_0" index="0" allow="pedestrian delivery bicycle" speed="3.65" length="4.67" shape="2145.08,1511.08 2145.81,1509.84 2146.59,1509.39 2147.41,1509.75 2148.28,1510.90"/>
    </edge>
    <edge id=":12453023452_0" function="internal">
        <lane id=":12453023452_0_0" index="0" disallow="tram rail_urban rail rail_electric rail_fast ship container cable_car subway aircraft wheelchair scooter drone" speed="13.89" length="14.43" shape="1035.51,1845.16 1024.77,1835.52"/>
    </edge>
    <edge id=":12453023452_1" function="internal">
        <lane id=":12453023452_1_0" index="0" disallow="tram rail_urban rail rail_electric rail_fast ship container cable_car subway aircraft wheelchair scooter drone" speed="8.31" length="3.93" shape="1035.51,1845.16 1033.12,1842.26 1033.07,1842.10"/>
    </edge>
    <edge id=":12453023452_2" function="internal">
        <lane id=":12453023452_2_0" index="0" disallow="tram rail_urban rail rail_electric rail_fast ship container cable_car subway aircraft wheelchair scooter drone" speed="3.65" length="1.44" shape="1035.51,1845.16 1035.16,1843.76"/>
    </edge>
    <edge id=":12453023452_9" function="internal">
        <lane id=":12453023452_9_0" index="0" disallow="tram rail_urban rail rail_electric rail_fast ship container cable_car subway aircraft wheelchair scooter drone" speed="8.31" length="10.41" shape="1033.07,1842.10 1032.17,1839.16 1032.68,1835.86 1034.63,1832.37"/>
    </edge>
    <edge id=":12453023452_10" function="internal">
        <lane id=":12453023452_10_0" index="0" disallow="tram rail_urban rail rail_electric rail_fast ship container cable_car subway aircraft wheelchair scooter drone" speed="3.65" length="3.23" shape="1035.16,1843.76 1035.39,1842.90 1036.22,1842.57 1037.65,1842.77"/>
    </edge>
    <edge id=":12453023452_3" function="internal">
        <lane id=":12453023452_3_0" index="0" disallow="tram rail_urban rail rail_electric rail_fast ship container cable_car subway aircraft wheelchair scooter drone" speed="6.88" length="9.51" shape="1037.20,1834.28 1035.87,1836.63 1035.50,1838.83 1036.10,1840.87 1037.65,1842.77"/>
    </edge>
    <edge id=":12453023452_4" function="internal">
        <lane id=":12453023452_4_0" index="0" disallow="tram rail_urban rail rail_electric rail_fast ship container cable_car subway aircraft wheelchair scooter drone" speed="7.85" length="14.55" shape="1037.20,1834.28 1034.34,1837.14 1031.32,1838.30 1028.13,1837.76 1024.77,1835.52"/>
    </edge>
    <edge id=":12453023452_5" function="internal">
        <lane id=":12453023452_5_0" index="0" disallow="tram rail_urban rail rail_electric rail_fast ship container cable_car subway aircraft wheelchair scooter drone" speed="3.65" length="4.67" shape="1037.20,1834.28 1035.84,1834.77 1034.96,1834.61 1034.55,1833.81 1034.63,1832.37"/>
    </edge>
    <edge id=":12453023452_6" function="internal">
        <lane id=":12453023452_6_0" index="0" disallow="tram rail_urban rail rail_electric rail_fast ship container cable_car subway aircraft wheelchair scooter drone" speed="6.32" length="9.04" shape="1026.91,1833.14 1029.00,1834.53 1030.98,1834.87 1032.86,1834.15 1034.63,1832.37"/>
    </edge>
    <edge id=":12453023452_7" function="internal">
        <lane id=":12453023452_7_0" index="0" disallow="tram rail_urban rail rail_electric rail_fast ship container cable_car subway aircraft wheelchair scooter drone" speed="13.89" length="14.43" shape="1026.91,1833.14 1037.65,1842.77"/>
    </edge>
    <edge id=":12453023452_8" function="internal">
        <lane id=":12453023452_8_0" index="0" disallow="tram rail_urban rail rail_electric rail_fast ship container cable_car subway aircraft wheelchair scooter drone" speed="3.65" length="1.44" shape="1026.91,1833.14 1027.27,1834.54"/>
    </edge>
    <edge id=":12453023452_11" function="internal">
        <lane id=":12453023452_11_0" index="0" disallow="tram rail_urban rail rail_electric rail_fast ship container cable_car subway aircraft wheelchair scooter drone" speed="3.65" length="3.23" shape="1027.27,1834.54 1027.03,1835.40 1026.20,1835.73 1024.77,1835.52"/>
    </edge>
    <edge id=":12453023453_0" function="internal">
        <lane id=":12453023453_0_0" index="0" disallow="tram rail_urban rail rail_electric rail_fast ship container cable_car subway aircraft wheelchair scooter drone" speed="3.65" length="4.67" shape="1055.47,1804.42 1056.82,1803.94 1057.70,1804.10 1058.11,1804.89 1058.03,1806.33"/>
    </edge>
    <edge id=":12453023454_0" function="internal">
        <lane id=":12453023454_0_0" index="0" disallow="tram rail_urban rail rail_electric rail_fast ship container cable_car subway aircraft wheelchair scooter drone" speed="13.89" length="10.98" shape="1055.01,1810.38 1048.45,1819.19"/>
    </edge>
    <edge id=":12453023454_1" function="internal">
        <lane id=":12453023454_1_0" index="0" disallow="tram rail_urban rail rail_electric rail_fast ship container cable_car subway aircraft wheelchair scooter drone" speed="8.40" length="3.90" shape="1055.01,1810.38 1052.36,1813.00 1052.21,1813.07"/>
    </edge>
    <edge id=":12453023454_2" function="internal">
        <lane id=":12453023454_2_0" index="0" disallow="tram rail_urban rail rail_electric rail_fast ship container cable_car subway aircraft wheelchair scooter drone" speed="3.65" length="1.44" shape="1055.01,1810.38 1053.65,1810.86"/>
    </edge>
    <edge id=":12453023454_9" function="internal">