<?xml version="1.0" encoding="UTF-8"?>

<!-- generated on 2025-05-22 01:23:21 by Eclipse SUMO polyconvert Version 1.23.1
<polyconvertConfiguration xmlns:xsi="http://www.w3.org/2001/XMLSchema-instance" xsi:noNamespaceSchemaLocation="http://sumo.dlr.de/xsd/polyconvertConfiguration.xsd">

    <input>
        <net-file value="map.net.xml"/>
        <osm-files value="map.osm"/>
        <type-file value="typemap.xml"/>
    </input>

    <output>
        <output-file value="map.poly.xml"/>
    </output>

</polyconvertConfiguration>
-->

<additional xmlns:xsi="http://www.w3.org/2001/XMLSchema-instance" xsi:noNamespaceSchemaLocation="http://sumo.dlr.de/xsd/additional_file.xsd">
    <location netOffset="-754599.64,1907053.86" convBoundary="-455.95,-8267.42,14658.35,32452.53" origBoundary="-42.610455,-17.308526,-42.471903,-16.939568" projParameter="+proj=utm +zone=23 +ellps=WGS84 +datum=WGS84 +units=m +no_defs"/>

    <poly id="1345183081" type="tourism" color="207,245,201" fill="1" layer="-2.00" shape="999.908689,1867.064763 1017.702739,1835.508412 1046.280676,1859.955785 1046.946803,1863.036745 1044.505986,1866.145240 1020.403999,1872.202441 1012.627577,1872.398714 999.908689,1867.064763"/>
    <poly id="1345183088" type="tourism" color="207,245,201" fill="1" layer="-2.00" shape="1293.987534,1897.302086 1294.957406,1871.756713 1311.819721,1873.119269 1301.901359,1899.595322 1293.987534,1897.302086"/>
    <poly id="1345183090" type="building" color="255,230,230" fill="1" layer="-1.00" shape="922.898243,1941.709057 934.123771,1927.906138 938.154527,1931.144614 939.265568,1929.779966 947.112088,1936.082426 946.378441,1936.988413 957.030416,1945.548036 953.037163,1950.469549 949.264368,1947.438249 946.392520,1950.972839 943.243159,1948.443131 939.522275,1953.018010 937.995886,1951.785773 935.773664,1954.503997 924.745454,1945.639006 925.950879,1944.162462 922.898243,1941.709057"/>
    <poly id="1345183092" type="tourism" color="207,245,201" fill="1" layer="-2.00" shape="903.896567,1886.327760 900.444371,1865.410347 911.726263,1864.716604 907.674726,1887.222002 903.896567,1886.327760"/>
    <poly id="1345183093" type="tourism" color="207,245,201" fill="1" layer="-2.00" shape="922.547253,1901.453716 962.912100,1906.754346 972.590449,1913.177984 953.814255,1932.500258 922.547253,1901.453716"/>
    <poly id="1345183094" type="building" color="255,230,230" fill="1" layer="-1.00" shape="1062.453235,1854.628228 1068.286981,1844.535084 1073.795709,1847.677659 1078.703153,1846.963390 1080.716091,1860.801190 1063.698862,1863.238254 1062.453235,1854.628228"/>
    <poly id="1345183094#1" type="historic" color="128,255,128" fill="1" layer="-1.00" shape="1062.453235,1854.628228 1068.286981,1844.535084 1073.795709,1847.677659 1078.703153,1846.963390 1080.716091,1860.801190 1063.698862,1863.238254 1062.453235,1854.628228"/>
    <poly id="1345183097" type="tourism" color="207,245,201" fill="1" layer="-2.00" shape="1163.554137,1857.811668 1163.018638,1842.128530 1175.250866,1842.552226 1191.289801,1845.309181 1204.823267,1848.540180 1201.903061,1861.874619 1174.760553,1857.893796 1163.554137,1857.811668"/>
    <poly id="1345183098" type="tourism" color="207,245,201" fill="1" layer="-2.00" shape="1150.453360,1817.482243 1165.917964,1804.002932 1160.989564,1832.133104 1150.453360,1817.482243"/>
    <poly id="1345183099" type="amenity" color="237,199,199" fill="1" layer="-1.00" shape="1202.698055,1860.768552 1205.141456,1849.311302 1228.518001,1854.235791 1227.733393,1857.888416 1229.269786,1858.212560 1228.294036,1862.753366 1226.234917,1862.324997 1225.541110,1865.577881 1202.698055,1860.768552"/>
    <poly id="1345183099#1" type="building" color="255,230,230" fill="1" layer="-1.00" shape="1202.698055,1860.768552 1205.141456,1849.311302 1228.518001,1854.235791 1227.733393,1857.888416 1229.269786,1858.212560 1228.294036,1862.753366 1226.234917,1862.324997 1225.541110,1865.577881 1202.698055,1860.768552"/>
    <poly id="1345183100" type="tourism" color="207,245,201" fill="1" layer="-2.00" shape="1238.759238,1866.553982 1240.179925,1855.862376 1265.224681,1864.862925 1238.759238,1866.553982"/>
    <poly id="1345183102" type="tourism" color="207,245,201" fill="1" layer="-2.00" shape="1809.028711,1577.590402 1806.513970,1572.196177 1806.651800,1567.887219 1906.787052,1519.292299 1908.693599,1521.139793 1911.740449,1569.201192 1909.512867,1571.476710 1809.028711,1577.590402"/>
    <poly id="1345183103" type="leisure" color="207,245,201" fill="1" layer="-2.00" shape="1863.971876,1524.842071 1848.340956,1390.936689 1936.866927,1376.567720 1954.515229,1498.124141 1927.883946,1501.844513 1901.305682,1508.963478 1863.971876,1524.842071"/>
    <poly id="1345183103#1" type="sport" color="79,230,125" fill="1" layer="-2.00" shape="1863.971876,1524.842071 1848.340956,1390.936689 1936.866927,1376.567720 1954.515229,1498.124141 1927.883946,1501.844513 1901.305682,1508.963478 1863.971876,1524.842071"/>
    <poly id="1345183105" type="building" color="255,230,230" fill="1" layer="-1.00" shape="1775.918808,1593.427226 1829.837077,1589.056888 1839.473093,1640.723304 1786.410394,1638.616589 1775.918808,1593.427226"/>
    <poly id="1345183107" type="leisure" color="207,245,201" fill="1" layer="-2.00" shape="1270.960756,1189.099940 1240.340756,945.740660 1332.594056,928.349168 1377.121840,1180.160888 1270.960756,1189.099940"/>
    <poly id="1345183107#1" type="sport" color="79,230,125" fill="1" layer="-2.00" shape="1270.960756,1189.099940 1240.340756,945.740660 1332.594056,928.349168 1377.121840,1180.160888 1270.960756,1189.099940"/>
    <poly id="1345308794" type="amenity" color="237,199,199" fill="1" layer="-1.00" shape="991.591998,1838.335218 996.330792,1829.185795 994.328233,1828.169857 998.422903,1820.279632 1011.499155,1826.971061 1002.665697,1844.010716 991.591998,1838.335218"/>
    <poly id="1345308794#1" type="building" color="255,230,230" fill="1" layer="-1.00" shape="991.591998,1838.335218 996.330792,1829.185795 994.328233,1828.169857 998.422903,1820.279632 1011.499155,1826.971061 1002.665697,1844.010716 991.591998,1838.335218"/>
    <poly id="1345308795" type="amenity" color="237,199,199" fill="1" layer="-1.00" shape="1960.224776,1540.394581 1960.027525,1532.258674 1971.527182,1531.971291 1971.724576,1540.118270 1960.224776,1540.394581"/>
    <poly id="1345308795#1" type="building" color="255,230,230" fill="1" layer="-1.00" shape="1960.224776,1540.394581 1960.027525,1532.258674 1971.527182,1531.971291 1971.724576,1540.118270 1960.224776,1540.394581"/>
    <poly id="1345636296" type="tourism" color="207,245,201" fill="1" layer="-2.00" shape="1351.660479,1871.350300 1365.506476,1869.760748 1365.103449,1882.698511 1351.961596,1877.591476 1351.660479,1871.350300"/>
    <poly id="1345636297" type="tourism" color="207,245,201" fill="1" layer="-2.00" shape="1557.616030,1760.353224 1585.913379,1732.308332 1592.338409,1741.518210 1557.616030,1760.353224"/>
    <poly id="1345636298" type="tourism" color="207,245,201" fill="1" layer="-2.00" shape="1625.284576,1696.275001 1682.917195,1648.365709 1637.495740,1708.679208 1625.284576,1696.275001"/>
    <poly id="1345636299" type="tourism" color="207,245,201" fill="1" layer="-2.00" shape="1777.448795,1580.431077 1793.561374,1572.025453 1794.830003,1579.040738 1777.448795,1580.431077"/>
    <poly id="1346004634" type="tourism" color="207,245,201" fill="1" layer="-2.00" shape="2621.443679,1431.375366 2633.425230,1439.840054 2634.179841,1462.739953 2620.413380,1463.011769 2621.443679,1431.375366"/>
    <poly id="1346373042" type="tourism" color="207,245,201" fill="1" layer="-2.00" shape="1020.792184,1824.652160 1028.555317,1807.116457 1044.782993,1816.503623 1031.548659,1834.771670 1020.792184,1824.652160"/>
    <poly id="1346373051" type="water" color="181,209,209" fill="0" layer="-4.00" shape="10240.448932,-7243.309372 10245.929128,-7235.761811 10262.207170,-7205.952569 10271.460693,-7166.573652 10284.252035,-7099.590350 10294.876063,-7077.614332 10317.667755,-7036.040904 10320.499892,-7001.318292 10329.007022,-6957.976533 10363.864796,-6905.496987 10386.615936,-6867.078977 10383.946930,-6827.545765 10389.182403,-6792.068044 10410.389455,-6749.676866 10423.611008,-6711.135529 10422.424449,-6679.527876 10407.730791,-6648.520547 10404.223051,-6612.143464 10411.258103,-6560.090070 10436.453422,-6516.964292 10441.453549,-6438.031666 10448.376204,-6394.669402 10448.846476,-6358.332727 10425.398855,-6327.223207 10409.242242,-6285.931994 10408.025017,-6256.682590 10420.479677,-6215.761602 10429.641682,-6183.490594 10445.082373,-6157.623720 10452.628505,-6126.915294 10437.269441,-6085.634402 10432.125690,-6053.178287 10426.317125,-6010.437504 10430.724419,-5977.307690 10421.469684,-5955.074469 10397.929661,-5931.061888 10386.272307,-5911.167307 10389.840843,-5881.193622 10387.866560,-5848.778542 10380.299244,-5819.447022 10356.073999,-5787.530365 10323.749592,-5766.571280 10309.668361,-5749.004048 10302.837197,-5724.432563 10304.094606,-5688.892329 10291.792095,-5656.343747 10257.237978,-5623.507514 10224.985094,-5597.810179 10189.694751,-5561.011397 10166.245819,-5529.891298 10155.507834,-5499.732757 10141.620089,-5467.163840 10137.948131,-5443.419484 10127.128510,-5419.571712 10109.160916,-5395.642682 10079.750584,-5373.858043 10046.676650,-5335.903394 10008.257789,-5305.697556 9979.041878,-5294.379885 9952.916727,-5286.745280 9926.196477,-5284.827928 9876.337886,-5287.838566 9840.646350,-5289.459730 9819.270696,-5279.804815 9806.855680,-5266.611353 9797.218683,-5240.940922 9787.551870,-5218.403856 9756.404500,-5193.507913 9732.643504,-5165.053116 9720.389577,-5139.360063 9719.554725,-5082.011819 9713.617951,-5054.827849 9698.155035,-5033.777440 9664.858139,-5013.017531 9638.819913,-4998.607672 9618.085964,-4979.582235 9615.778458,-4955.567770 9619.790696,-4929.043630 9617.923743,-4911.291247 9605.043589,-4892.887528 9581.652587,-4876.950564 9572.432750,-4860.144310 9569.000825,-4840.821512 9573.198433,-4800.735002 9556.802952,-4770.293676 9534.548198,-4747.074152 9513.753534,-4732.732085 9493.958265,-4722.566467 9469.947846,-4713.398529 9447.131509,-4693.294549 9430.706168,-4665.975641 9416.816906,-4644.945806 9407.138679,-4622.408888 9390.713075,-4595.101099 9377.324827,-4575.639086 9356.570226,-4558.164008 9350.511844,-4540.368801 9352.390800,-4515.898962 9358.394920,-4498.247992 9362.400256,-4472.233130 9362.046679,-4459.206434 9347.524694,-4445.986249 9330.325685,-4437.415597 9302.635626,-4429.761875 9284.928626,-4420.154916 9273.642346,-4400.199617 9261.467779,-4368.251649 9247.090375,-4344.613496 9235.710120,-4331.954286 9218.484050,-4325.476244 9200.683049,-4323.165431 9175.790570,-4301.473824 9161.954460,-4276.270318 9148.485294,-4263.063857 9135.975339,-4257.167005 9116.038465,-4257.962526 9102.341434,-4262.470336 9086.649277,-4259.145870 9073.237678,-4242.286044 9062.118507,-4209.310946 9060.338041,-4184.783006 9043.941222,-4154.342273 9033.546771,-4146.911374 9019.960824,-4143.602982 8998.472511,-4141.765406 8976.466924,-4140.441646 8959.785869,-4132.929981 8947.917540,-4117.662498 8940.367600,-4092.539998 8939.114726,-4067.509507 8927.397691,-4041.292583 8901.120510,-4003.948240 8876.167156,-3986.940290 8852.102032,-3981.947142 8828.034311,-3977.983799 8814.998927,-3971.559992 8816.252822,-3955.940737 8853.383890,-3923.574599 8876.616756,-3911.371428 8888.274894,-3901.610692 8897.396497,-3885.572080 8904.102337,-3853.855988 8908.094683,-3788.232087 8910.592099,-3756.982364 8904.602732,-3732.931918 8882.376866,-3708.141372 8865.183595,-3699.061942 8844.761290,-3696.197410 8827.494480,-3692.841915 8814.984088,-3686.945320 8810.459122,-3672.292730 8815.452605,-3650.465146 8825.580551,-3638.082506 8843.502598,-3631.015453 8865.208347,-3615.138455 8884.785131,-3601.836328 8893.846665,-3590.480894 8891.851496,-3582.637582 8873.629010,-3572.504057 8863.929480,-3551.528628 8867.840454,-3532.809786 8883.467189,-3500.687833 8889.768301,-3459.067091 8898.542881,-3429.470399 8897.784291,-3406.528052 8885.682140,-3368.834447 8877.530122,-3349.960667 8858.819579,-3337.218719 8837.363974,-3332.768584 8811.680877,-3331.918345 8787.548145,-3332.128923 8759.997005,-3313.526585 8751.246026,-3299.860659 8752.052210,-3278.499752 8763.810792,-3260.933597 8787.623206,-3245.072445 8811.845763,-3237.045330 8838.722568,-3226.970563 8858.764719,-3218.878744 8881.085815,-3195.712367 8895.452010,-3179.741077 8900.529918,-3152.178660 8927.153561,-3121.238823 8939.431036,-3104.709209 8940.727808,-3084.926980 8930.540343,-3061.332010 8924.728672,-3024.250726 8926.644478,-2997.688578 8918.034059,-2973.072999 8897.916248,-2947.268766 8872.974689,-2929.231371 8866.423543,-2908.296425 8868.218853,-2891.111732 8877.935654,-2869.344792 8888.177684,-2848.105038 8895.538625,-2805.977462 8900.672867,-2773.200290 8903.769003,-2736.742793 8910.383983,-2711.281871 8918.737852,-2673.862081 8925.878075,-2648.928345 8926.700448,-2625.485874 8925.480734,-2597.842587 8929.458768,-2573.909126 8935.592630,-2545.319385 8943.772694,-2521.439881 8954.475895,-2504.901090 8974.648606,-2485.870636 8989.516507,-2471.467103 8995.981592,-2458.516978 8998.318305,-2439.777915 8995.363527,-2424.625049 8990.825039,-2411.002092 8993.669504,-2393.321504 9004.920940,-2374.696931 9017.699909,-2359.746137 9027.748160,-2353.618836 9042.428755,-2353.807399 9058.088855,-2359.744474 9074.808948,-2365.163666 9086.865736,-2365.850070 9093.747805,-2360.202564 9097.629575,-2344.605993 9101.594304,-2321.724317 9110.696535,-2307.246771 9124.976529,-2298.040161 9129.348760,-2284.022289 9128.463010,-2270.977742 9119.201066,-2257.305137 9107.836705,-2244.125969 9093.239115,-2236.641195 9076.482764,-2234.864622 9061.296907,-2232.587795 9047.217839,-2226.150598 9035.281408,-2216.086775 9018.351837,-2187.200836 9014.858414,-2172.561497 9016.119178,-2156.410818 9025.776084,-2139.338157 9040.062819,-2129.611123 9054.821188,-2124.585193 9074.880416,-2114.422953 9091.764150,-2106.290629 9103.968435,-2095.507075 9107.906437,-2074.706818 9103.909233,-2059.529473 9096.749582,-2045.363463 9086.440988,-2031.157009 9074.023269,-2017.964354 9049.561756,-2003.055712 9030.832758,-1990.822918 9017.341742,-1979.177845 9019.642184,-1964.092472 9030.820173,-1951.202856 9042.991088,-1943.021031 9058.193256,-1943.216261 9070.183463,-1949.106167 9081.598920,-1959.152223 9095.637933,-1968.722618 9111.271599,-1976.741114 9125.885483,-1982.144319 9141.087630,-1982.339614 9151.637315,-1977.780107 9163.353993,-1964.377032 9173.569898,-1945.218757 9185.329599,-1927.641643 9192.403271,-1907.922559 9198.888672,-1893.411400 9193.757762,-1884.486905 9186.413479,-1883.861028 9170.024066,-1894.081419 9155.229343,-1902.749912 9142.557128,-1909.363918 9128.885200,-1911.801563 9111.088892,-1908.959688 9099.118718,-1901.508695 9098.236849,-1888.984650 9106.686711,-1883.888777 9124.503236,-1885.158511 9139.288539,-1878.051197 9145.175141,-1868.736739 9146.368859,-1857.811746 9139.165082,-1846.247366 9124.083430,-1836.663559 9103.251711,-1824.935222 9086.604957,-1813.770025 9070.149535,-1788.533265 9062.638519,-1760.288740 9058.761602,-1735.733969 9063.274450,-1710.766494 9072.995786,-1689.520057 9087.931220,-1669.901903 9122.277955,-1650.012616 9135.575945,-1636.109375 9144.170652,-1620.573332 9149.037518,-1608.643566 9148.169005,-1595.078810 9146.755196,-1582.547932 9140.530710,-1576.743138 9128.480135,-1575.536411 9105.856776,-1581.502221 9087.447779,-1584.919971 9075.410432,-1582.683637 9065.028045,-1574.201131 9057.319991,-1562.120962 9055.932989,-1547.497609 9056.675039,-1530.310465 9054.887142,-1506.302970 9042.576066,-1484.773645 9042.282342,-1467.041692 9054.507106,-1454.685933 9076.114720,-1446.625246 9101.974237,-1433.924142 9131.655365,-1410.320751 9145.962661,-1399.032659 9159.082801,-1398.160283 9176.772480,-1409.338887 9190.856076,-1416.296590 9212.571040,-1399.888215 9223.274917,-1383.349472 9219.313733,-1364.529501 9208.998113,-1350.843384 9188.273117,-1330.767208 9175.941985,-1310.798866 9158.824384,-1296.493907 9144.824980,-1283.801405 9127.064250,-1277.316972 9102.380890,-1279.613298 9090.159962,-1292.489535 9075.953134,-1295.950213 9060.251953,-1293.146434 9045.159045,-1283.573684 9027.636461,-1259.364222 9010.147227,-1232.553010 8987.393028,-1207.235569 8970.050882,-1168.954475 8977.158013,-1146.622482 8999.995758,-1123.983002 9024.024608,-1091.448325 9025.368314,-1068.001487 9016.687187,-1049.641458 9000.598352,-1036.401838 8976.609936,-1025.153698 8947.868592,-1016.956169 8923.947031,-1000.493488 8901.152388,-978.298318 8876.976847,-940.981659 8862.643013,-913.679610 8857.137459,-893.278654 8863.144402,-874.586668 8880.072835,-863.863494 8888.262571,-838.422726 8883.665998,-828.453279 8868.021943,-821.996290 8850.846211,-811.345087 8839.503477,-795.564310 8837.140297,-775.724106 8849.539047,-749.816862 8870.348147,-721.924652 8883.860425,-691.336675 8891.468686,-670.583470 8890.669452,-650.763314 8875.733698,-629.720985 8858.025843,-619.062977 8829.751534,-615.057352 8808.363816,-605.913526 8794.922327,-591.146768 8786.216758,-573.827469 8765.440974,-558.446278 8739.844089,-549.769020 8718.542968,-533.860713 8692.945897,-525.194592 8679.430929,-516.151810 8677.578197,-496.318198 8684.090309,-479.714400 8674.442117,-454.565445 8674.635755,-439.453073 8684.276901,-424.461754 8697.150227,-402.203574 8697.865193,-387.097880 8688.096799,-371.326346 8668.289883,-361.693603 8641.623277,-355.095631 8627.034754,-347.611538 8613.615784,-330.231973 8607.049804,-310.338009 8609.479541,-284.302946 8615.005152,-262.471040 8611.481555,-250.954128 8600.616921,-239.343190 8567.237190,-224.321284 8544.788877,-215.695739 8520.178002,-212.246907 8494.497693,-210.877237 8461.452387,-210.454191 8444.781109,-201.902718 8426.718148,-178.207551 8422.819910,-155.214131 8408.344531,-138.873173 8403.814265,-123.689302 8413.959330,-109.224755 8425.636377,-98.943315 8426.943159,-79.150212 8416.686366,-60.770426 8417.607962,-29.500634 8418.416061,-7.098965 8409.305873,18.563326 8392.677148,31.288749 8370.159239,33.669698 8346.530655,32.410702 8327.536429,23.263697 8318.354009,2.530481 8313.817952,-23.488687 8296.274608,-41.501695 8285.269631,-40.840486 8277.068557,-25.620780 8274.183313,-5.774070 8272.995429,24.481804 8261.638425,39.221427 8247.029537,45.144137 8233.911280,45.311902 8225.095643,53.253327 8225.840823,69.919904 8226.120861,91.818938 8220.643698,115.352899 8221.595559,148.183574 8229.223395,170.509086 8248.816200,184.852902 8268.823746,190.853345 8286.795386,201.574809 8297.024474,221.774220 8297.952486,253.564339 8292.399312,270.322547 8280.962159,278.806874 8265.758422,279.001308 8243.857537,289.712239 8225.717714,306.620288 8204.302185,313.681912 8177.547850,313.492438 8152.796369,305.991226 8135.306159,292.140874 8121.466478,276.671473 8116.961404,252.224280 8096.282101,235.292051 8074.211879,231.919979 8057.489563,237.349099 8046.122974,250.527376 8046.950717,274.501124 8054.491660,290.039980 8067.411256,315.952034 8068.637721,329.489832 8061.576191,351.471575 8066.141182,380.612999 8069.075546,404.559830 8081.875243,421.083432 8092.140238,444.936589 8103.943851,465.115961 8121.374173,474.272126 8136.103397,477.738008 8152.912508,479.084480 8173.849745,476.214686 8198.388146,467.031456 8217.754709,463.661257 8224.153233,471.397068 8222.277204,488.628661 8214.603945,504.373058 8203.725205,514.931922 8187.153269,531.310494 8171.032005,542.988293 8145.972021,552.167067 8113.617410,565.093147 8097.529469,579.383703 8088.305215,596.177648 8088.511747,612.341728 8081.370170,628.068186 8067.415387,644.413193 8049.656685,650.375931 8028.140760,649.609916 7992.918275,643.803524 7935.694457,640.880208 7917.081621,620.787700 7904.736729,599.042772 7887.126632,575.803761 7867.092323,567.721515 7846.190994,574.244635 7839.537388,587.362582 7838.714333,604.580648 7847.936407,628.447208 7857.291634,662.742904 7875.476237,690.138087 7893.714173,721.707131 7902.869769,740.359109 7902.982990,749.227200 7892.064107,756.663759 7866.418650,761.686133 7850.174557,762.934357 7839.796918,771.925279 7833.788396,793.904510 7827.227808,814.318406 7820.995676,819.613363 7802.628961,818.806895 7783.770107,821.129297 7763.895263,825.557455 7749.345584,836.173930 7725.427659,853.166195 7690.892564,860.383473 7666.785675,861.731837 7650.448459,855.683932 7627.746064,844.501784 7614.946564,827.977920 7602.821326,823.437570 7588.759750,831.445528 7578.026786,853.473810 7562.496800,869.838477 7543.169771,876.341156 7518.491095,874.574033 7508.594819,880.436022 7497.888273,904.545641 7491.868699,926.524851 7472.186333,946.064953 7456.503389,950.439361 7432.877980,948.658700 7416.128296,951.994731 7406.817125,962.023742 7401.408976,990.240310 7388.087758,1015.446167 7363.206213,1038.695402 7350.372978,1061.281770 7338.991424,1115.130947 7335.118037,1140.205332 7333.420350,1171.508264 7309.060028,1194.761829 7295.137384,1213.707911 7292.728432,1230.946070 7304.830273,1274.585780 7303.164846,1350.213607 7289.039303,1394.187284 7267.386341,1423.662534 7249.746179,1439.001786 7236.384529,1461.074315 7232.431261,1479.893405 7236.895551,1501.218575 7251.422400,1529.712771 7256.478330,1555.714296 7249.583969,1591.778299 7235.747194,1617.499880 7213.947898,1635.505241 7177.869915,1645.354304 7157.459457,1648.736619 7144.057679,1667.675898 7155.368657,1690.995685 7156.225793,1716.541285 7150.079418,1728.611560 7124.529510,1740.408269 7091.258420,1764.295225 7076.261761,1781.682359 7075.626205,1814.544042 7079.761196,1850.988063 7073.804484,1877.140747 7055.702092,1897.180579 7026.516738,1912.666376 7006.733518,1924.389562 6993.919066,1948.536604 6994.981334,1990.235068 6995.485118,2029.858908 6981.473582,2083.741060 6975.183348,2125.532985 6979.311519,2161.456654 6986.801328,2214.024587 6978.428242,2256.894915 6965.102753,2281.048393 6943.766772,2295.393345 6926.472135,2296.133577 6897.836118,2271.992975 6874.987073,2249.340100 6863.894835,2243.224807 6850.340002,2250.173696 6836.957465,2270.684785 6831.996589,2293.170592 6839.517215,2307.148802 6866.598250,2332.870530 6884.228231,2357.682533 6927.587711,2394.801842 6942.350787,2410.902587 6936.024911,2428.976581 6914.686160,2442.280651 6891.653448,2446.227403 6871.410449,2463.692011 6842.413661,2493.259834 6805.978155,2516.145426 6780.939247,2536.428007 6768.785921,2561.574046 6762.401363,2585.938146 6746.425154,2615.096830 6725.000960,2630.915304 6702.062852,2649.875546 6683.033139,2671.565455 6672.424266,2690.125533 6667.484267,2708.414332 6661.139700,2726.720957 6654.796423,2745.968764 6658.505365,2779.096274 6661.023034,2792.152557 6664.926117,2802.843788 6667.018361,2820.113195 6664.825670,2831.822997 6657.468830,2845.004608 6645.554924,2853.825940 6624.273090,2860.761941 6600.257960,2860.291576 6587.095484,2860.458590 6568.584379,2866.850018 6546.279110,2878.682088 6527.148333,2896.630420 6514.326558,2924.497574 6496.622448,2932.428902 6476.499170,2934.223263 6457.793633,2924.450547 6426.467269,2897.132224 6416.953512,2879.547230 6402.061897,2865.883803 6389.588329,2859.110297 6374.134734,2862.395573 6371.350466,2887.057081 6361.518523,2905.651380 6345.396301,2916.640793 6322.904549,2914.611649 6305.771342,2907.133121 6292.433329,2893.449933 6276.824361,2883.637825 6255.857014,2879.286125 6236.608064,2888.764861 6208.739424,2889.893074 6187.772918,2884.766191 6175.997391,2872.602282 6155.514309,2845.146241 6144.505770,2832.197499 6125.072555,2826.287110 6096.534376,2835.883370 6065.754612,2851.675585 6031.907546,2869.809748 6004.844879,2873.230648 5979.887435,2859.683317 5981.168231,2838.119229 5953.667259,2806.909572 5933.272277,2786.383883 5913.809076,2778.934556 5885.193846,2781.599861 5859.937127,2805.781557 5844.834858,2835.991266 5836.895990,2882.276753 5824.948581,2917.074987 5815.242772,2945.677250 5809.263221,2963.458445 5789.286846,2976.024187 5770.688811,2974.720290 5752.701207,2961.095607 5750.206247,2947.263907 5742.866854,2918.113236 5727.130784,2899.067569 5708.347891,2883.138685 5688.855458,2873.375282 5658.589303,2868.365473 5637.001208,2876.345128 5611.511521,2881.284745 5561.743386,2865.747403 5535.165647,2846.063539 5499.938557,2816.490142 5477.312014,2802.923880 5454.733188,2793.974379 5432.262228,2792.719133 5414.517950,2798.324696 5388.096093,2790.962799 5363.207488,2782.817480 5344.433808,2768.427329 5333.280055,2743.931079 5314.924611,2700.292217 5297.374209,2659.721437 5272.427376,2646.948318 5246.869034,2647.271003 5229.174354,2655.954044 5214.788991,2682.311850 5197.161464,2697.161585 5173.981818,2701.296423 5137.474057,2693.297500 5079.126497,2672.474901 5024.720202,2656.994909 4972.575395,2636.868895 4935.855286,2611.166871 4895.203826,2580.885921 4888.797700,2564.036342 4892.369117,2540.904475 4915.355270,2520.594976 4934.244183,2483.406759 4937.845569,2461.813618 4930.701499,2448.051603 4916.655884,2439.758013 4884.196436,2445.559774 4861.774411,2448.145620 4840.011857,2442.263492 4807.262310,2424.206861 4795.371412,2402.797966 4805.680348,2360.336636 4807.708948,2337.224235 4804.389484,2319.560641 4790.324614,2309.728104 4772.504105,2308.413603 4740.831226,2314.969273 4717.555184,2311.420332 4686.300250,2289.491380 4665.324294,2284.363211 4641.261813,2280.049002 4625.013195,2281.017719 4596.591853,2299.856239 4555.853000,2324.231217 4535.925233,2340.648455 4505.077387,2351.035617 4481.150509,2357.493337 4446.536323,2376.409578 4431.345313,2399.687562 4407.834841,2439.236507 4390.992534,2455.614738 4367.793912,2458.220882 4345.216988,2448.495170 4332.588723,2430.184660 4323.805309,2408.736466 4308.148604,2395.856494 4279.446846,2391.589150 4242.570954,2415.150811 4214.042622,2425.519399 4191.765846,2439.651581 4166.430526,2457.675516 4144.260168,2480.276965 4128.155553,2493.556370 4104.228587,2500.024685 4080.175675,2496.473704 4058.366032,2485.974028 4042.748012,2476.160539 4022.394159,2458.710988 3999.662756,2436.673958 3977.784578,2421.557733 3954.547204,2421.074600 3936.909580,2435.159271 3924.066637,2460.721498 3911.960692,2483.960249 3884.519187,2518.176459 3845.380038,2547.147089 3831.557193,2556.555331 3809.173861,2562.228805 3787.430972,2557.884458 3772.560755,2545.747185 3754.450470,2521.348768 3737.872285,2496.920036 3716.915956,2493.340844 3699.211375,2501.258606 3682.533670,2529.946980 3666.805535,2573.250492 3661.698588,2597.940324 3646.331877,2608.142888 3616.853497,2603.895418 3587.075845,2575.789944 3559.762695,2559.202373 3527.061517,2545.749492 3499.106813,2539.943652 3460.980247,2525.794698 3435.967563,2507.639033 3420.264066,2490.130651 3383.440357,2455.956856 3358.582141,2450.112031 3325.134633,2438.218407 3303.256913,2423.090459 3279.730410,2399.523611 3243.914284,2384.581344 3231.538837,2385.511486 3218.502194,2395.673460 3212.501467,2411.914773 3192.563014,2427.555591 3167.849550,2433.257554 3143.021372,2428.951210 3130.452107,2415.256692 3104.635118,2394.021478 3078.059786,2375.109926 3046.933247,2362.422813 3022.065592,2355.802643 2990.247932,2350.808545 2964.507425,2336.514798 2951.891063,2318.192406 2928.519326,2306.947180 2903.690307,2303.404601 2878.143419,2303.724266 2852.556947,2301.730206 2827.641400,2291.268205 2805.717290,2271.534154 2788.220421,2234.803533 2769.150913,2196.553474 2755.019995,2181.339214 2732.444508,2171.622942 2709.187315,2170.363613 2693.609873,2162.862906 2687.943008,2143.700558 2689.284646,2126.742615 2675.221249,2116.919854 2656.576415,2111.760591 2640.901753,2097.329586 2625.295468,2087.515013 2602.048219,2087.041612 2585.703716,2080.314438 2570.796301,2065.109786 2541.884287,2043.923764 2521.570750,2029.550661 2504.449610,2022.833138 2472.632830,2017.849394 2456.298118,2011.897093 2438.275275,1995.181119 2424.786893,1969.184979 2406.754570,1951.705092 2387.275604,1941.938747 2361.603290,1933.024824 2341.328577,1921.740356 2306.358039,1912.167409 2284.674003,1912.438171 2266.298613,1928.833637 2254.201021,1952.846184 2242.037056,1970.692096 2223.660612,1987.862608 2196.877785,2013.597506 2172.261723,2026.217482 2149.877685,2032.653196 2119.700815,2034.568838 2100.308418,2031.732606 2082.506741,2032.718709 2066.325887,2039.088012 2047.872331,2050.091855 2038.689185,2058.665874 2022.603154,2073.493426 2007.917969,2075.215671 1988.553306,2075.457170 1974.461490,2063.320164 1952.739942,2059.737755 1931.870886,2063.076144 1915.747532,2074.061875 1891.015052,2078.212395 1869.455647,2088.490767 1834.859227,2108.930149 1805.641240,2125.460253 1777.860476,2133.501870 1756.933823,2132.223516 1737.455096,2122.456576 1720.986410,2105.731757 1703.088854,2099.023271 1684.500919,2099.254805 1663.718133,2109.523271 1645.313313,2123.604283 1616.890077,2142.438365 1596.998897,2161.930177 1589.521253,2183.570507 1588.908451,2195.890838 1603.957898,2223.418113 1612.700935,2241.014299 1612.930861,2259.480490 1603.124150,2280.385812 1591.725657,2298.232768 1567.107831,2311.615947 1544.667041,2312.670369 1530.680666,2308.991206 1518.065855,2290.679175 1500.763085,2269.347312 1483.554969,2256.473699 1450.895500,2245.331434 1428.933532,2223.282422 1411.506392,2191.942457 1396.457376,2164.426148 1381.493341,2144.593130 1361.257398,2136.385436 1322.509979,2134.553245 1292.447881,2145.700724 1272.642616,2172.122526 1261.444784,2206.121622 1250.334218,2246.287028 1254.531431,2273.174347 1251.032784,2302.471514 1248.193762,2324.053986 1231.398326,2343.506878 1213.693235,2351.422397 1190.436316,2350.172410 1178.694174,2339.544780 1170.661213,2316.547307 1156.215918,2275.935614 1145.710481,2240.656205 1123.299397,2182.438517 1101.999859,2151.146487 1072.121616,2114.579791 1050.179348,2094.069288 1020.588047,2080.585201 984.831849,2070.244749 956.160764,2068.297794 925.964869,2068.672822 902.784768,2073.577927 878.196818,2077.371087 865.006321,2075.198564 850.360180,2069.777713 839.982435,2066.164044 824.440548,2064.020689 811.660227,2057.170440 798.839375,2047.054297 792.090891,2034.050354 782.990112,2020.145517 767.800449,2008.652553 744.233364,2003.807406 723.104655,2005.940871 713.751136,2010.253424 709.187505,2021.526504 714.999627,2034.542086 725.913956,2