<?xml version="1.0" encoding="UTF-8"?>

<!-- generated on 2025-05-22 01:34:08.771090 by randomTrips.py v1_23_1+0000-676720d13f6
<configuration>
    <net-file value="map/map.net.xml"/>
    <route-file value="map/map.rou.xml"/>
    <end value="200.0"/>
</configuration>
-->

<routes xmlns:xsi="http://www.w3.org/2001/XMLSchema-instance" xsi:noNamespaceSchemaLocation="http://sumo.dlr.de/xsd/routes_file.xsd">
    <trip id="0" depart="0.00" from="144333793#0" to="-1346373043#0"/>
    <trip id="1" depart="1.00" from="-334749085#0" to="-308824412#1"/>
    <trip id="2" depart="2.00" from="308824410#1" to="308824376#0"/>
    <trip id="3" depart="3.00" from="338471428#0" to="-144205920#3"/>
    <trip id="4" depart="4.00" from="-816809637" to="-1346373074#0"/>
    <trip id="5" depart="5.00" from="-308824406#0" to="1346373044"/>
    <trip id="6" depart="6.00" from="-1346373041" to="-308824396#4"/>
    <trip id="7" depart="7.00" from="144525670#2" to="144148687#0"/>
    <trip id="8" depart="8.00" from="-308824406#2" to="144205926#3"/>
    <trip id="9" depart="9.00" from="334750021" to="-1345183084#1"/>
    <trip id="10" depart="10.00" from="334750012#0" to="308824391#1"/>
    <trip id="11" depart="11.00" from="-338471405#1" to="-236410121#0"/>
    <trip id="12" depart="12.00" from="836000624#2" to="-338471409"/>
    <trip id="13" depart="13.00" from="-144205920#6" to="-144205932#4"/>
    <trip id="14" depart="14.00" from="338471407#1" to="144333780#1"/>
    <trip id="15" depart="15.00" from="334750012#1" to="308824411#1"/>
    <trip id="16" depart="16.00" from="144147883#2" to="836042096#1"/>
    <trip id="17" depart="17.00" from="-338471427#3" to="144149907#1"/>
    <trip id="18" depart="18.00" from="334751828#6" to="144333784#7"/>
    <trip id="19" depart="19.00" from="338471416#1" to="144205920#0"/>
    <trip id="20" depart="20.00" from="308824390#0" to="-144147883#1"/>
    <trip id="21" depart="21.00" from="-308824411#0" to="-334750012#0"/>
    <trip id="22" depart="22.00" from="-144149910#3" to="-308824416#0"/>
    <trip id="23" depart="23.00" from="-144205932#5" to="-334749998#2"/>
    <trip id="24" depart="24.00" from="144333792#1" to="-338471427#2"/>
    <trip id="25" depart="25.00" from="-338471425#1" to="-308824405#0"/>
    <trip id="26" depart="26.00" from="-334749067#2" to="816818247#2"/>
    <trip id="27" depart="27.00" from="144525670#0" to="144333783#1"/>
    <trip id="28" depart="28.00" from="-236410122#5" to="308824411#1"/>
    <trip id="29" depart="29.00" from="-236410122#1" to="-338471434#0"/>
    <trip id="30" depart="30.00" from="836089865" to="144525671#0"/>
    <trip id="31" depart="31.00" from="144148687#0" to="308824383#0"/>
    <trip id="32" depart="32.00" from="338471405#1" to="334749085#0"/>
    <trip id="33" depart="33.00" from="-308824411#1" to="-1346373074#2"/>
    <trip id="34" depart="34.00" from="-334751823#1" to="-334749094#0"/>
    <trip id="35" depart="35.00" from="-308824400#1" to="816821098#1"/>
    <trip id="36" depart="36.00" from="338471422" to="-334751830"/>
    <trip id="37" depart="37.00" from="236136923#0" to="-506596626#1"/>
    <trip id="38" depart="38.00" from="350897844#0" to="-836077499#3"/>
    <trip id="39" depart="39.00" from="-334749067#0" to="-308824419#1"/>
    <trip id="40" depart="40.00" from="144148689" to="-334749081"/>
    <trip id="41" depart="41.00" from="144205915#0" to="338471433#1"/>
    <trip id="42" depart="42.00" from="-338471436#0" to="-308824410#1"/>
    <trip id="43" depart="43.00" from="839635699#1" to="1346373057"/>
    <trip id="44" depart="44.00" from="-144205920#4" to="-144147883#2"/>
    <trip id="45" depart="45.00" from="-144333782#1" to="144333793#0"/>
    <trip id="46" depart="46.00" from="334749998#0" to="-829936843"/>
    <trip id="47" depart="47.00" from="-144148685#1" to="-338471434#2"/>
    <trip id="48" depart="48.00" from="839635699#0" to="144147904"/>
    <trip id="49" depart="49.00" from="836042095#2" to="338471417#2"/>
    <trip id="50" depart="50.00" from="-1345636300" to="308824406#1"/>
    <trip id="51" depart="51.00" from="236410122#5" to="144148682#0"/>
    <trip id="52" depart="52.00" from="-334749067#2" to="144525671#0"/>
    <trip id="53" depart="53.00" from="-144333783#1" to="-836017149"/>
    <trip id="54" depart="54.00" from="-836042088" to="836000623#0"/>
    <trip id="55" depart="55.00" from="338471422" to="-334749083"/>
    <trip id="56" depart="56.00" from="1345308796#1" to="-308824383#0"/>
    <trip id="57" depart="57.00" from="338472748" to="338471421#1"/>
    <trip id="58" depart="58.00" from="-334750009#2" to="144525670#3"/>
    <trip id="59" depart="59.00" from="144205932#3" to="-236410118#0"/>
    <trip id="60" depart="60.00" from="308824419#1" to="144148682#2"/>
    <trip id="61" depart="61.00" from="334749073#3" to="144148678#0"/>
    <trip id="62" depart="62.00" from="-130874053#0" to="-338471404"/>
    <trip id="63" depart="63.00" from="-1346004633" to="816809637"/>
    <trip id="64" depart="64.00" from="338471424" to="338471399#2"/>
    <trip id="65" depart="65.00" from="-334750022#2" to="-144148683#1"/>
    <trip id="66" depart="66.00" from="338471424" to="829936843"/>
    <trip id="67" depart="67.00" from="-144149911#1" to="1346004627"/>
    <trip id="68" depart="68.00" from="-144149906" to="308824421#1"/>
    <trip id="69" depart="69.00" from="308824421#1" to="-144333794#0"/>
    <trip id="70" depart="70.00" from="-836077499#3" to="144149906"/>
    <trip id="71" depart="71.00" from="-334749067#0" to="338471421#3"/>
    <trip id="72" depart="72.00" from="-816809638" to="-308824405#2"/>
    <trip id="73" depart="73.00" from="144147901#1" to="308824411#1"/>
    <trip id="74" depart="74.00" from="-308824396#1" to="-334751828#5"/>
    <trip id="75" depart="75.00" from="839635698#1" to="236410116#2"/>
    <trip id="76" depart="76.00" from="-830609279" to="1346373077#1"/>
    <trip id="77" depart="77.00" from="-144333784#7" to="-308824412#3"/>
    <trip id="78" depart="78.00" from="-338471404" to="144205926#2"/>
    <trip id="79" depart="79.00" from="-308824412#0" to="-308824410#1"/>
    <trip id="80" depart="80.00" from="-144149907#1" to="144333794#2"/>
    <trip id="81" depart="81.00" from="-308824411#1" to="338471436#0"/>
    <trip id="82" depart="82.00" from="338471414" to="-144149909#2"/>
    <trip id="83" depart="83.00" from="-308824414#2" to="236410122#3"/>
    <trip id="84" depart="84.00" from="-308824404#1" to="-144525661"/>
    <trip id="85" depart="85.00" from="816818247#1" to="144149911#1"/>
    <trip id="86" depart="86.00" from="-836077499#1" to="334749997#0"/>
    <trip id="87" depart="87.00" from="334750014#0" to="-308824390#1"/>
    <trip id="88" depart="88.00" from="-144205932#2" to="-836000624#2"/>
    <trip id="89" depart="89.00" from="-816809638" to="-839635698#0"/>
    <trip id="90" depart="90.00" from="308824406#0" to="236410122#7"/>
    <trip id="91" depart="91.00" from="836077499#2" to="-144205932#6"/>
    <trip id="92" depart="92.00" from="-338471440" to="-338471412#0"/>
    <trip id="93" depart="93.00" from="338471416#1" to="-308824421#0"/>
    <trip id="94" depart="94.00" from="-308824387#2" to="-836046311#0"/>
    <trip id="95" depart="95.00" from="-816809637" to="-334749998#2"/>
    <trip id="96" depart="96.00" from="-308824418#2" to="755063631"/>
    <trip id="97" depart="97.00" from="-836000623#0" to="338471417#3"/>
    <trip id="98" depart="98.00" from="144148682#1" to="-144147901#1"/>
    <trip id="99" depart="99.00" from="839635706" to="338471403#0"/>
    <trip id="100" depart="100.00" from="836042095#0" to="816760464#0"/>
    <trip id="101" depart="101.00" from="338471407#2" to="-236410122#6"/>
    <trip id="102" depart="102.00" from="-839635698#1" to="-308824406#1"/>
    <trip id="103" depart="103.00" from="-338471439" to="-144148685#0"/>
    <trip id="104" depart="104.00" from="-338471427#4" to="836077499#2"/>
    <trip id="105" depart="105.00" from="-334749067#0" to="334749094#3"/>
    <trip id="106" depart="106.00" from="-836042093" to="-830604765"/>
    <trip id="107" depart="107.00" from="836000624#2" to="839635698#0"/>
    <trip id="108" depart="108.00" from="144148685#1" to="308824405#2"/>
    <trip id="109" depart="109.00" from="-236410117" to="-334750028#1"/>
    <trip id="110" depart="110.00" from="836042095#0" to="144205920#1"/>
    <trip id="111" depart="111.00" from="144148678#1" to="308824418#0"/>
    <trip id="112" depart="112.00" from="-144148680#1" to="144205920#6"/>
    <trip id="113" depart="113.00" from="1346004627" to="338471412#1"/>
    <trip id="114" depart="114.00" from="-236410118#1" to="836000625#0"/>
    <trip id="115" depart="115.00" from="-144149910#3" to="-308824387#2"/>
    <trip id="116" depart="116.00" from="144205920#5" to="236410122#9"/>
    <trip id="117" depart="117.00" from="-308824412#5" to="-144333788"/>
    <trip id="118" depart="118.00" from="338471427#5" to="-308824419#1"/>
    <trip id="119" depart="119.00" from="144205920#4" to="144333787"/>
    <trip id="120" depart="120.00" from="-755063632#1" to="144205920#5"/>
    <trip id="121" depart="121.00" from="1346373074#3" to="816818247#0"/>
    <trip id="122" depart="122.00" from="-308824396#4" to="308824405#0"/>
    <trip id="123" depart="123.00" from="-308824414#2" to="-506596626#1"/>
    <trip id="124" depart="124.00" from="236410121#0" to="-334750034#2"/>
    <trip id="125" depart="125.00" from="-334751823#2" to="308824418#3"/>
    <trip id="126" depart="126.00" from="-144149909#0" to="-836077499#3"/>
    <trip id="127" depart="127.00" from="839635699#2" to="839635698#1"/>
    <trip id="128" depart="128.00" from="-144149909#1" to="-308824406#0"/>
    <trip id="129" depart="129.00" from="-334749067#0" to="816818246"/>
    <trip id="130" depart="130.00" from="338471425#1" to="338471426#0"/>
    <trip id="131" depart="131.00" from="-338471424" to="-236410122#0"/>
    <trip id="132" depart="132.00" from="338471399#2" to="308824396#2"/>
    <trip id="133" depart="133.00" from="144205932#6" to="836083196"/>
    <trip id="134" depart="134.00" from="144525671#1" to="-1345183096"/>
    <trip id="135" depart="135.00" from="334750034#2" to="-334750034#1"/>
    <trip id="136" depart="136.00" from="236410116#3" to="816818248#0"/>
    <trip id="137" depart="137.00" from="-144333794#2" to="-144333784#6"/>
    <trip id="138" depart="138.00" from="-144333781" to="144149908#0"/>
    <trip id="139" depart="139.00" from="-334749073#3" to="144333781"/>
    <trip id="140" depart="140.00" from="308824398#0" to="-308824398#2"/>
    <trip id="141" depart="141.00" from="144333790" to="-334749083"/>
    <trip id="142" depart="142.00" from="-839635699#2" to="338471436#0"/>
    <trip id="143" depart="143.00" from="338471407#0" to="-144205932#0"/>
    <trip id="144" depart="144.00" from="-816809638" to="-334749998#1"/>
    <trip id="145" depart="145.00" from="-1345183082" to="334749073#1"/>
    <trip id="146" depart="146.00" from="144333792#2" to="-334749073#3"/>
    <trip id="147" depart="147.00" from="308824412#3" to="144149907#0"/>
    <trip id="148" depart="148.00" from="-816818248#0" to="-1345183104"/>
    <trip id="149" depart="149.00" from="-144149909#3" to="338471427#1"/>
    <trip id="150" depart="150.00" from="338471434#2" to="144148687#1"/>
    <trip id="151" depart="151.00" from="338471399#2" to="144205920#4"/>
    <trip id="152" depart="152.00" from="-236136923#2" to="-144333793#1"/>
    <trip id="153" depart="153.00" from="-334750022#2" to="338471433#2"/>
    <trip id="154" depart="154.00" from="334749998#3" to="338471417#2"/>
    <trip id="155" depart="155.00" from="338471433#1" to="-308824405#0"/>
    <trip id="156" depart="156.00" from="-308824418#2" to="-144333780#1"/>
    <trip id="157" depart="157.00" from="334749083" to="338471427#2"/>
    <trip id="158" depart="158.00" from="-350897843#0" to="144333788"/>
    <trip id="159" depart="159.00" from="-236410117" to="816809638"/>
    <trip id="160" depart="160.00" from="338471417#2" to="836046310"/>
    <trip id="161" depart="161.00" from="334750022#1" to="338471427#0"/>
    <trip id="162" depart="162.00" from="-1346179965#0" to="308824412#5"/>
    <trip id="163" depart="163.00" from="-338471401" to="816812874"/>
    <trip id="164" depart="164.00" from="334750009#1" to="338471417#5"/>
    <trip id="165" depart="165.00" from="334750022#1" to="-334749085#2"/>
    <trip id="166" depart="166.00" from="334749094#2" to="-144333784#0"/>
    <trip id="167" depart="167.00" from="338471421#0" to="338471417#0"/>
    <trip id="168" depart="168.00" from="-308824409#0" to="334751823#1"/>
    <trip id="169" depart="169.00" from="-836042095#2" to="-334751824"/>
    <trip id="170" depart="170.00" from="334749998#3" to="-308824412#5"/>
    <trip id="171" depart="171.00" from="-1346179964" to="-308824394"/>
    <trip id="172" depart="172.00" from="-338471399#0" to="338471417#5"/>
    <trip id="173" depart="173.00" from="836042092" to="-334749998#3"/>
    <trip id="174" depart="174.00" from="144333794#0" to="-755063630#1"/>
    <trip id="175" depart="175.00" from="836067476" to="144148680#3"/>
    <trip id="176" depart="176.00" from="816818248#0" to="-144333784#6"/>
    <trip id="177" depart="177.00" from="836042095#2" to="-308824383#0"/>
    <trip id="178" depart="178.00" from="836017150#0" to="-334749085#1"/>
    <trip id="179" depart="179.00" from="-144333782#0" to="-836017149"/>
    <trip id="180" depart="180.00" from="308824405#2" to="-334751828#6"/>
    <trip id="181" depart="181.00" from="144205932#1" to="1346373074#2"/>
    <trip id="182" depart="182.00" from="-338471430#0" to="144205915#4"/>
    <trip id="183" depart="183.00" from="-308824419#0" to="308824398#1"/>
    <trip id="184" depart="184.00" from="-130874053#1" to="755063632#1"/>
    <trip id="185" depart="185.00" from="144147901#0" to="308824406#0"/>
    <trip id="186" depart="186.00" from="308824412#3" to="236410122#4"/>
    <trip id="187" depart="187.00" from="-338471418#0" to="-144149909#1"/>
    <trip id="188" depart="188.00" from="236410116#4" to="-338471407#0"/>
    <trip id="189" depart="189.00" from="-334750034#3" to="338471408#1"/>
    <trip id="190" depart="190.00" from="308824398#2" to="-334750034#2"/>
    <trip id="191" depart="191.00" from="-334750028#1" to="-816812873"/>
    <trip id="192" depart="192.00" from="-338471440" to="-334750028#0"/>
    <trip id="193" depart="193.00" from="-144333792#2" to="-816821100"/>
    <trip id="194" depart="194.00" from="816818248#1" to="308824376#1"/>
    <trip id="195" depart="195.00" from="338471434#1" to="144333784#4"/>
    <trip id="196" depart="196.00" from="-334750012#1" to="144148688#1"/>
    <trip id="197" depart="197.00" from="-130874053#0" to="-334750009#2"/>
    <trip id="198" depart="198.00" from="-816818248#2" to="144205920#2"/>
    <trip id="199" depart="199.00" from="235957451" to="-839635693#0"/>
</routes>
